[TITLE]
Scenario: Base 
Date: 2021/4/29 22:48:03 

[JUNCTIONS]
;ID              	Elev        	Demand      	Pattern         
 424             	10          	0.41        	                	;
 231             	14.7        	0.86        	                	;
 225             	14.7        	0.74        	                	;
 483             	3.4         	0.19        	                	;
 482             	3.4         	0.23        	                	;
 481             	3.4         	0.3         	                	;
 480             	3.4         	0.18        	                	;
 479             	9           	0.07        	                	;
 478             	9           	0.43        	                	;
 477             	8           	0.1         	                	;
 476             	6           	1.92        	                	;
 362             	6.5         	0.1         	                	;
 361             	7.5         	0.09        	                	;
 264             	7           	0.09        	                	;
 263             	8.3         	0.29        	                	;
 262             	8.4         	0.97        	                	;
 259             	7.8         	0.15        	                	;
 258             	6.8         	0.14        	                	;
 257             	6.8         	0.91        	                	;
 256             	7.7         	0.36        	                	;
 255             	9           	0.3         	                	;
 254             	7           	0.17        	                	;
 64              	6.5         	0.18        	                	;
 253             	2           	2.4         	                	;
 252             	9.3         	1.42        	                	;
 475             	7.7         	0.29        	                	;
 474             	7           	0.2         	                	;
 473             	7           	0.29        	                	;
 472             	7           	0.2         	                	;
 471             	7           	0.2         	                	;
 470             	7           	0.28        	                	;
 469             	7           	0.2         	                	;
 468             	7           	0.23        	                	;
 245             	7           	0.19        	                	;
 47              	7.7         	0.4         	                	;
 467             	6.3         	1.79        	                	;
 465             	4           	0.46        	                	;
 464             	4           	0.93        	                	;
 463             	10          	0.19        	                	;
 462             	10          	0.16        	                	;
 461             	10          	0.43        	                	;
 460             	10.5        	0.13        	                	;
 459             	10.5        	2.47        	                	;
 458             	9.5         	0.11        	                	;
 457             	9.5         	1.33        	                	;
 456             	7           	0.09        	                	;
 376             	7           	3.1         	                	;
 41              	24          	0.05        	                	;
 40              	21          	1.34        	                	;
 455             	8.5         	0.39        	                	;
 454             	9.5         	0.56        	                	;
 453             	6           	0.03        	                	;
 452             	6           	0.87        	                	;
 451             	6           	1.08        	                	;
 450             	6           	0.84        	                	;
 449             	9.5         	0.62        	                	;
 448             	8           	0.49        	                	;
 447             	7           	0.98        	                	;
 446             	6.1         	0.28        	                	;
 444             	5           	0.65        	                	;
 443             	6.1         	0.12        	                	;
 442             	6.4         	0.53        	                	;
 441             	7.7         	0.18        	                	;
 440             	7.5         	0.29        	                	;
 439             	5           	1.94        	                	;
 438             	5           	1.46        	                	;
 437             	7           	0.4         	                	;
 436             	8           	0.18        	                	;
 435             	5.5         	0.62        	                	;
 434             	6.9         	0.6         	                	;
 433             	7.4         	0.84        	                	;
 432             	6           	0.57        	                	;
 431             	6           	0           	                	;
 430             	6.7         	0.61        	                	;
 429             	5.3         	0.5         	                	;
 428             	6           	0.48        	                	;
 427             	6.8         	0.4         	                	;
 426             	6           	0.28        	                	;
 425             	5.5         	0.48        	                	;
 423             	3.8         	0.6         	                	;
 422             	5           	0.65        	                	;
 421             	7.7         	0.56        	                	;
 420             	7.5         	0.76        	                	;
 419             	5.8         	1.3         	                	;
 418             	7.5         	0.29        	                	;
 417             	8           	1.02        	                	;
 416             	9           	0.42        	                	;
 415             	6           	0.75        	                	;
 414             	6.5         	0.16        	                	;
 413             	4.5         	0.14        	                	;
 412             	4.7         	0.09        	                	;
 411             	6           	0.6         	                	;
 410             	4           	0.23        	                	;
 409             	7           	0.4         	                	;
 408             	6           	0.45        	                	;
 407             	8           	0.27        	                	;
 406             	6.5         	1.19        	                	;
 405             	6.5         	1.78        	                	;
 404             	12          	0.16        	                	;
 403             	12          	0.17        	                	;
 402             	7           	0.55        	                	;
 401             	7           	0.42        	                	;
 400             	10          	1.79        	                	;
 399             	7.5         	0.57        	                	;
 398             	6           	0.21        	                	;
 397             	9           	0.21        	                	;
 396             	9           	0.19        	                	;
 395             	9           	0.39        	                	;
 394             	7           	0.52        	                	;
 393             	7           	0.41        	                	;
 392             	6.6         	3.81        	                	;
 391             	7.5         	0.77        	                	;
 390             	7.5         	2.05        	                	;
 389             	7           	0.48        	                	;
 388             	6.5         	0.91        	                	;
 387             	7           	1.78        	                	;
 386             	7           	2.93        	                	;
 385             	6.8         	1.33        	                	;
 384             	6           	1.12        	                	;
 383             	6.5         	2.07        	                	;
 382             	4           	3.16        	                	;
 381             	5           	0.41        	                	;
 380             	8           	1.13        	                	;
 379             	6           	0.99        	                	;
 378             	24          	1.07        	                	;
 377             	23          	0.78        	                	;
 375             	7           	0.1         	                	;
 374             	6           	1.16        	                	;
 373             	9.5         	0.25        	                	;
 372             	5.5         	1.86        	                	;
 371             	9           	1.07        	                	;
 370             	5.5         	2.37        	                	;
 369             	5.5         	1.59        	                	;
 368             	9           	1.55        	                	;
 367             	6.1         	0.23        	                	;
 366             	7.4         	0.1         	                	;
 365             	7           	0.47        	                	;
 364             	6           	0.14        	                	;
 363             	6           	0.31        	                	;
 360             	7           	0.88        	                	;
 359             	10          	0.79        	                	;
 358             	6           	0.2         	                	;
 357             	6           	0.21        	                	;
 356             	6           	1.85        	                	;
 355             	10          	4.23        	                	;
 354             	5.7         	0.62        	                	;
 353             	5.7         	0.59        	                	;
 352             	7           	1.14        	                	;
 351             	7           	1.94        	                	;
 350             	5           	0           	                	;
 349             	5           	0.56        	                	;
 348             	5           	0.63        	                	;
 347             	6           	0.75        	                	;
 346             	7           	2.02        	                	;
 345             	14.7        	2.78        	                	;
 344             	6.8         	3.04        	                	;
 343             	7.8         	0.11        	                	;
 342             	7.8         	1.09        	                	;
 341             	8.1         	1.73        	                	;
 340             	8.1         	1.72        	                	;
 339             	8           	0.07        	                	;
 338             	6.8         	0.18        	                	;
 337             	7           	0.43        	                	;
 336             	10          	2.22        	                	;
 335             	10          	1.92        	                	;
 334             	8           	0.42        	                	;
 333             	8           	0.46        	                	;
 332             	8           	3           	                	;
 331             	8           	0.28        	                	;
 330             	8           	1.59        	                	;
 329             	2           	0.7         	                	;
 328             	4           	2.11        	                	;
 327             	6           	2.31        	                	;
 326             	6           	2.11        	                	;
 325             	6           	2.71        	                	;
 324             	5.5         	1.54        	                	;
 323             	5.5         	1.76        	                	;
 322             	5.5         	1.99        	                	;
 321             	5.6         	2.81        	                	;
 320             	5.8         	0.67        	                	;
 319             	5.8         	0.53        	                	;
 318             	6           	1.37        	                	;
 317             	6.3         	1.48        	                	;
 316             	6.3         	2.61        	                	;
 315             	2           	1.17        	                	;
 314             	2           	2.18        	                	;
 313             	7           	2.1         	                	;
 312             	6.4         	1.1         	                	;
 311             	11.6        	1.14        	                	;
 310             	9.8         	0.2         	                	;
 309             	9.8         	3.8         	                	;
 308             	8           	0.49        	                	;
 307             	8.5         	0.35        	                	;
 306             	9           	0.46        	                	;
 305             	9           	1.29        	                	;
 304             	7.2         	2.23        	                	;
 303             	7.2         	2.47        	                	;
 302             	8           	2.14        	                	;
 301             	9           	0.34        	                	;
 300             	8           	0.63        	                	;
 299             	6.8         	0.87        	                	;
 298             	6.8         	1.24        	                	;
 297             	6.5         	3.33        	                	;
 296             	6.5         	1.37        	                	;
 295             	7.5         	2.22        	                	;
 294             	8.4         	1.64        	                	;
 293             	5.2         	1.06        	                	;
 292             	5.8         	1.17        	                	;
 291             	5.8         	1.04        	                	;
 290             	4.5         	0.33        	                	;
 289             	4.5         	0.83        	                	;
 288             	5           	1.88        	                	;
 287             	5           	1.31        	                	;
 286             	5           	0.2         	                	;
 285             	5.7         	0.1         	                	;
 284             	5.5         	0.47        	                	;
 283             	5.5         	0.72        	                	;
 282             	7           	1           	                	;
 281             	7           	0.09        	                	;
 280             	7           	0.58        	                	;
 279             	2.5         	0.54        	                	;
 278             	8           	1.75        	                	;
 277             	4           	1.31        	                	;
 276             	5.5         	1.96        	                	;
 275             	8           	0.5         	                	;
 274             	8           	2.05        	                	;
 273             	5.3         	1.3         	                	;
 272             	5.3         	0.26        	                	;
 271             	5.3         	1.78        	                	;
 270             	6.1         	2.22        	                	;
 269             	6           	0.8         	                	;
 268             	5.5         	1.46        	                	;
 267             	8           	2.05        	                	;
 266             	6           	0.69        	                	;
 265             	4           	1.55        	                	;
 261             	5           	1.35        	                	;
 260             	9           	2.87        	                	;
 251             	5           	1.43        	                	;
 250             	5           	0.19        	                	;
 249             	7.7         	0.22        	                	;
 248             	8           	1.81        	                	;
 247             	7.7         	0.41        	                	;
 246             	7.7         	0.51        	                	;
 244             	8           	2.76        	                	;
 243             	5           	3.75        	                	;
 242             	5           	1.96        	                	;
 241             	5           	2.22        	                	;
 240             	5.5         	1.92        	                	;
 239             	5.5         	3.73        	                	;
 238             	5           	1.39        	                	;
 237             	6           	1.38        	                	;
 236             	6           	0.73        	                	;
 235             	6           	3.8         	                	;
 234             	5           	1.77        	                	;
 233             	5           	1.76        	                	;
 232             	5           	5.11        	                	;
 230             	5.7         	2.51        	                	;
 229             	5           	3.32        	                	;
 228             	5           	3.51        	                	;
 227             	5           	3.86        	                	;
 226             	5           	4.26        	                	;
 223             	5           	4.7         	                	;
 222             	4.5         	3.72        	                	;
 221             	4.5         	3.58        	                	;
 220             	8           	3.37        	                	;
 219             	7.8         	1.77        	                	;
 218             	7.5         	2.26        	                	;
 217             	7           	0.6         	                	;
 216             	7           	1.35        	                	;
 215             	7           	0.45        	                	;
 214             	7           	0.23        	                	;
 213             	7.7         	0.77        	                	;
 212             	7.7         	0.49        	                	;
 211             	7.7         	0.83        	                	;
 210             	7.5         	3.14        	                	;
 209             	9           	1.45        	                	;
 208             	7.6         	1.47        	                	;
 207             	11          	1.12        	                	;
 206             	11          	1.07        	                	;
 205             	12          	2.07        	                	;
 204             	12          	2.35        	                	;
 203             	11          	4.18        	                	;
 202             	9           	0.89        	                	;
 201             	10.5        	1.26        	                	;
 200             	12          	1.39        	                	;
 199             	9           	0.48        	                	;
 198             	9           	0.84        	                	;
 197             	7           	0.9         	                	;
 196             	6           	1.85        	                	;
 195             	6           	0.78        	                	;
 194             	10.5        	0.97        	                	;
 193             	11.5        	4.35        	                	;
 192             	10.5        	2.2         	                	;
 191             	10.5        	0.18        	                	;
 190             	9.6         	0.72        	                	;
 189             	9.4         	1.54        	                	;
 188             	8           	1.29        	                	;
 187             	7           	0.52        	                	;
 186             	7           	0.48        	                	;
 185             	7           	1.65        	                	;
 184             	2           	0.92        	                	;
 183             	6           	2.16        	                	;
 182             	5.5         	0.88        	                	;
 181             	6           	1.24        	                	;
 180             	6           	0.91        	                	;
 179             	6           	0.63        	                	;
 178             	6.5         	1.07        	                	;
 177             	7           	1.33        	                	;
 176             	7.8         	2.46        	                	;
 175             	14.7        	3.36        	                	;
 174             	1.9         	0.89        	                	;
 173             	7           	1.8         	                	;
 172             	7           	0.23        	                	;
 171             	7           	0.76        	                	;
 170             	7           	0.91        	                	;
 169             	7           	0.71        	                	;
 168             	1.9         	1.27        	                	;
 167             	6           	1.5         	                	;
 166             	6           	0.23        	                	;
 165             	6           	0.65        	                	;
 164             	6.6         	0.81        	                	;
 163             	6.3         	0.89        	                	;
 162             	7           	2.19        	                	;
 161             	8           	0.55        	                	;
 160             	8           	1           	                	;
 159             	4.8         	3.3         	                	;
 158             	8           	2.57        	                	;
 157             	3.4         	0.27        	                	;
 156             	3.4         	0.8         	                	;
 155             	3.4         	0.96        	                	;
 154             	6.5         	0.82        	                	;
 153             	6.8         	0.89        	                	;
 152             	7           	1.11        	                	;
 151             	6.4         	2.95        	                	;
 150             	5.3         	1.5         	                	;
 149             	5           	0.64        	                	;
 148             	5.3         	1.02        	                	;
 147             	6           	1.97        	                	;
 146             	5.7         	1.97        	                	;
 145             	5.3         	2.77        	                	;
 144             	4.5         	2.08        	                	;
 143             	5           	0.78        	                	;
 142             	4           	1.67        	                	;
 141             	5           	2.11        	                	;
 140             	6.5         	1.57        	                	;
 139             	6.2         	1.43        	                	;
 138             	7           	0.52        	                	;
 137             	6.2         	0.5         	                	;
 136             	6.5         	0.66        	                	;
 135             	6.5         	0.85        	                	;
 134             	6.5         	1.21        	                	;
 133             	7           	1.78        	                	;
 132             	7.5         	0.26        	                	;
 131             	7           	1.33        	                	;
 130             	6.1         	0.7         	                	;
 129             	6.1         	0.7         	                	;
 128             	6.1         	0.97        	                	;
 127             	6.1         	1.31        	                	;
 126             	7.4         	1.37        	                	;
 125             	7.4         	0.62        	                	;
 124             	9.8         	2.06        	                	;
 123             	8           	2.44        	                	;
 122             	7.6         	0.81        	                	;
 121             	7.6         	0.55        	                	;
 120             	7.6         	1.18        	                	;
 119             	7.5         	1.79        	                	;
 118             	7.4         	1.71        	                	;
 117             	7.4         	1.7         	                	;
 116             	7           	1.29        	                	;
 115             	8.4         	1.37        	                	;
 114             	7.5         	1.32        	                	;
 113             	4.8         	2.19        	                	;
 112             	8           	1.18        	                	;
 111             	7.5         	0.99        	                	;
 110             	8.1         	0.38        	                	;
 109             	8.1         	0.79        	                	;
 108             	8.4         	1.18        	                	;
 107             	8.4         	0.38        	                	;
 106             	5           	2.8         	                	;
 105             	9.2         	1.65        	                	;
 104             	9.2         	1.12        	                	;
 103             	9           	0.54        	                	;
 102             	11          	1.06        	                	;
 101             	11          	1.1         	                	;
 100             	7.1         	1.02        	                	;
 99              	9.3         	1.07        	                	;
 98              	8.2         	0.78        	                	;
 97              	7.6         	0.7         	                	;
 96              	10          	0.98        	                	;
 95              	7.6         	0.71        	                	;
 94              	8.2         	2.56        	                	;
 93              	7.5         	1.39        	                	;
 92              	9           	0.75        	                	;
 91              	9           	0.46        	                	;
 90              	7.5         	0.51        	                	;
 89              	8.5         	0.7         	                	;
 88              	8           	0.51        	                	;
 87              	10          	0.93        	                	;
 86              	10          	0.5         	                	;
 85              	11          	0.99        	                	;
 84              	10          	1.79        	                	;
 83              	10          	0.71        	                	;
 82              	9           	0.24        	                	;
 81              	9           	0.61        	                	;
 80              	12          	2.41        	                	;
 79              	12          	2.44        	                	;
 78              	9           	1           	                	;
 77              	8           	1.17        	                	;
 76              	8           	1.54        	                	;
 75              	8           	1.06        	                	;
 74              	9           	0.84        	                	;
 73              	8           	0.76        	                	;
 72              	9           	0.95        	                	;
 71              	8           	0.44        	                	;
 70              	8           	0.46        	                	;
 69              	8           	0.9         	                	;
 68              	7           	0.21        	                	;
 67              	8           	0.14        	                	;
 66              	8           	0.49        	                	;
 65              	8           	0.31        	                	;
 63              	11          	1.79        	                	;
 62              	9.5         	1.74        	                	;
 61              	9           	0.2         	                	;
 60              	9           	0.4         	                	;
 59              	8           	0.59        	                	;
 58              	6.8         	0.54        	                	;
 57              	6.8         	1.21        	                	;
 56              	7           	0.86        	                	;
 55              	7           	1.13        	                	;
 54              	6           	0.99        	                	;
 53              	4           	3.27        	                	;
 52              	10          	0.34        	                	;
 51              	6           	0           	                	;
 50              	6           	2.49        	                	;
 49              	8.5         	2.82        	                	;
 48              	7.5         	1.39        	                	;
 46              	6           	2.78        	                	;
 45              	5.6         	2.57        	                	;
 44              	5.6         	2.77        	                	;
 43              	16          	1.06        	                	;
 42              	21          	2.8         	                	;
 39              	17.5        	3.24        	                	;
 38              	7.7         	2.28        	                	;
 37              	11.5        	0.87        	                	;
 36              	6           	1.68        	                	;
 35              	6           	0.8         	                	;
 34              	6           	0.8         	                	;
 33              	6           	1.39        	                	;
 32              	2.5         	3.53        	                	;
 31              	5           	2.1         	                	;
 30              	5           	3.68        	                	;
 29              	5.3         	1.67        	                	;
 28              	6.5         	3.06        	                	;
 27              	4           	2.77        	                	;
 26              	8.5         	1.23        	                	;
 25              	8.5         	0.5         	                	;
 24              	5.5         	0.92        	                	;
 23              	8.5         	1.51        	                	;
 22              	5.5         	3.17        	                	;
 21              	10          	1.54        	                	;
 20              	7.5         	1.03        	                	;
 19              	9           	0.99        	                	;
 18              	8           	0.76        	                	;
 17              	8           	1.05        	                	;
 16              	7           	1.16        	                	;
 15              	8           	0.71        	                	;